*SPEF "ieee 1481-1999"
*DESIGN "user_proj_timer"
*DATE "18:26:15 Tuesday October 21, 2025"
*VENDOR "The OpenROAD Project"
*PROGRAM "OpenROAD"
*VERSION "b16bda7e82721d10566ff7e2b68f1ff0be9f9e38"
*DESIGN_FLOW "NAME_SCOPE LOCAL" "PIN_CAP NONE"
*DIVIDER /
*DELIMITER :
*BUS_DELIMITER []
*T_UNIT 1 NS
*C_UNIT 1 PF
*R_UNIT 1 OHM
*L_UNIT 1 HENRY

*NAME_MAP
*1 io_in[0]
*2 io_in[10]
*3 io_in[1]
*4 io_in[2]
*5 io_in[3]
*6 io_in[4]
*7 io_in[5]
*8 io_in[6]
*9 io_in[7]
*10 io_in[8]
*11 io_in[9]
*12 net19
*13 net29
*14 net20
*15 net21
*16 net22
*17 net23
*18 net24
*19 net25
*20 net26
*21 net27
*22 net28
*23 io_out[0]
*24 io_out[10]
*25 io_out[1]
*26 io_out[2]
*27 io_out[3]
*28 io_out[4]
*29 io_out[5]
*30 io_out[6]
*31 io_out[7]
*32 io_out[8]
*33 io_out[9]
*36 wb_clk_i
*37 wb_rst_i
*38 _000_
*39 _001_
*40 _002_
*41 _003_
*42 _004_
*43 _005_
*44 _006_
*45 _007_
*46 _008_
*47 _009_
*48 _010_
*49 _011_
*50 _012_
*51 _013_
*52 _014_
*53 _015_
*54 _016_
*55 _017_
*56 _018_
*57 _019_
*58 _020_
*59 _021_
*60 _022_
*61 _023_
*62 _024_
*63 _025_
*64 _026_
*65 _027_
*66 _028_
*67 _029_
*68 _030_
*69 _031_
*70 _032_
*71 _033_
*72 _034_
*73 _035_
*74 _036_
*75 _037_
*76 _038_
*77 _039_
*78 _040_
*79 _041_
*80 _042_
*81 _043_
*82 _044_
*83 _045_
*84 _046_
*85 _047_
*86 _048_
*87 _049_
*88 _050_
*89 _051_
*90 _052_
*91 _053_
*92 _054_
*93 _055_
*94 _056_
*95 _057_
*96 _058_
*97 _059_
*98 _060_
*99 _061_
*100 _062_
*101 _063_
*102 _064_
*103 _065_
*104 _066_
*105 _067_
*106 _068_
*107 _069_
*108 _070_
*109 _071_
*110 _072_
*111 _073_
*112 _074_
*113 _075_
*114 _076_
*115 _077_
*116 _078_
*117 _079_
*118 _080_
*119 _081_
*120 _082_
*121 _083_
*122 _084_
*123 _085_
*124 _086_
*125 _087_
*126 _088_
*127 _089_
*128 _090_
*129 _091_
*130 _092_
*131 _093_
*132 _094_
*133 _095_
*134 _096_
*135 _097_
*136 _098_
*137 _099_
*138 _100_
*139 _101_
*140 _102_
*141 _103_
*142 _104_
*143 _105_
*144 _106_
*145 _107_
*146 _108_
*147 _109_
*148 _110_
*149 _111_
*150 _112_
*151 _113_
*152 _114_
*153 _115_
*154 _116_
*155 _117_
*156 _118_
*157 _119_
*158 _120_
*159 _121_
*160 _122_
*161 _123_
*162 _124_
*163 _125_
*164 _126_
*165 _127_
*166 _128_
*167 _129_
*168 _130_
*169 _131_
*170 _132_
*171 _133_
*172 _134_
*173 _135_
*174 _136_
*175 _137_
*176 _138_
*177 _139_
*178 _140_
*179 _141_
*180 _142_
*181 _143_
*182 _144_
*183 _145_
*184 _146_
*185 _147_
*186 _148_
*187 _149_
*188 _150_
*189 _151_
*190 _152_
*191 _153_
*192 _154_
*193 _155_
*194 _156_
*195 _157_
*196 _158_
*197 _159_
*198 _160_
*199 _161_
*200 _162_
*201 _163_
*202 _164_
*203 _165_
*204 _166_
*205 _167_
*206 _168_
*207 _169_
*208 _170_
*209 _171_
*210 _172_
*211 _173_
*212 _174_
*213 _175_
*214 _176_
*215 _177_
*216 _178_
*217 _179_
*218 _180_
*219 _181_
*220 _182_
*221 _183_
*222 _184_
*223 _185_
*224 _186_
*225 _187_
*226 _188_
*227 _189_
*228 _190_
*229 _191_
*230 _192_
*231 _193_
*232 _194_
*233 _195_
*234 _196_
*235 _197_
*236 _198_
*237 _199_
*238 _200_
*239 _201_
*240 _202_
*241 _203_
*242 _204_
*243 _205_
*244 _206_
*245 _207_
*246 _208_
*247 _209_
*248 _210_
*249 _211_
*250 _212_
*251 _213_
*252 _214_
*253 _215_
*254 _216_
*255 _217_
*256 _218_
*257 _219_
*258 _220_
*259 _221_
*260 _222_
*261 _223_
*262 _224_
*263 _225_
*264 _226_
*265 _227_
*266 _228_
*267 _229_
*268 _230_
*269 _231_
*270 _232_
*271 _233_
*272 _234_
*273 _235_
*274 _236_
*275 _237_
*276 _238_
*277 _239_
*278 _240_
*279 _241_
*280 _242_
*281 _243_
*282 _244_
*283 _245_
*284 _246_
*285 _247_
*286 _248_
*287 _249_
*288 _250_
*289 _251_
*290 _252_
*291 _253_
*292 _254_
*293 _255_
*294 _256_
*295 _257_
*296 _258_
*297 _259_
*298 _260_
*299 _261_
*300 _262_
*301 _263_
*302 _264_
*303 _265_
*304 _266_
*305 _267_
*306 _268_
*307 _269_
*308 _270_
*309 _271_
*310 _272_
*311 _273_
*312 _274_
*313 _275_
*314 _276_
*315 _277_
*316 _278_
*317 _279_
*318 _280_
*319 _281_
*320 _282_
*321 _283_
*322 _284_
*323 _285_
*324 _286_
*325 _287_
*326 _288_
*327 _289_
*328 _290_
*329 _291_
*330 _292_
*331 _293_
*332 _294_
*333 _295_
*334 _296_
*335 _297_
*336 _298_
*337 _299_
*338 _300_
*339 _301_
*340 _302_
*341 _303_
*342 _304_
*343 _305_
*344 _306_
*345 _307_
*346 _308_
*347 _309_
*348 _310_
*349 _311_
*350 _312_
*351 _313_
*352 _314_
*353 _315_
*354 _316_
*355 _317_
*356 _318_
*357 _319_
*358 _320_
*359 _321_
*360 _322_
*361 _323_
*362 _324_
*363 _325_
*364 _326_
*365 _327_
*366 _328_
*367 _329_
*368 _330_
*369 _331_
*370 clknet_0_wb_clk_i
*371 clknet_3_0__leaf_wb_clk_i
*372 clknet_3_1__leaf_wb_clk_i
*373 clknet_3_2__leaf_wb_clk_i
*374 clknet_3_3__leaf_wb_clk_i
*375 clknet_3_4__leaf_wb_clk_i
*376 clknet_3_5__leaf_wb_clk_i
*377 clknet_3_6__leaf_wb_clk_i
*378 clknet_3_7__leaf_wb_clk_i
*379 net1
*380 net10
*381 net100
*382 net101
*383 net102
*384 net103
*385 net104
*386 net105
*387 net106
*388 net107
*389 net108
*390 net109
*391 net11
*392 net110
*393 net111
*394 net112
*395 net113
*396 net114
*397 net115
*398 net116
*399 net117
*400 net118
*401 net119
*402 net12
*403 net120
*404 net121
*405 net122
*406 net123
*407 net124
*408 net125
*409 net126
*410 net127
*411 net128
*412 net129
*413 net13
*414 net130
*415 net131
*416 net132
*417 net133
*418 net134
*419 net135
*420 net136
*421 net137
*422 net138
*423 net139
*424 net14
*425 net140
*426 net141
*427 net142
*428 net143
*429 net144
*430 net145
*431 net146
*432 net147
*433 net148
*434 net149
*435 net15
*436 net150
*437 net151
*438 net152
*439 net153
*440 net154
*441 net155
*442 net156
*443 net157
*444 net158
*445 net159
*446 net16
*447 net160
*448 net161
*449 net162
*450 net163
*451 net164
*452 net165
*453 net166
*454 net167
*455 net168
*456 net169
*457 net17
*458 net170
*459 net171
*460 net172
*461 net173
*462 net174
*463 net175
*464 net176
*465 net177
*466 net178
*467 net179
*468 net18
*469 net180
*470 net181
*471 net182
*472 net183
*473 net184
*474 net185
*475 net186
*476 net187
*477 net188
*478 net189
*479 net190
*480 net191
*481 net192
*482 net193
*483 net194
*484 net195
*485 net196
*486 net197
*487 net198
*488 net199
*489 net2
*490 net200
*491 net201
*492 net3
*493 net30
*494 net31
*495 net32
*496 net33
*497 net34
*498 net35
*499 net36
*500 net37
*501 net38
*502 net39
*503 net4
*504 net40
*505 net41
*506 net42
*507 net43
*508 net44
*509 net45
*510 net46
*511 net47
*512 net48
*513 net49
*514 net5
*515 net50
*516 net51
*517 net52
*518 net53
*519 net54
*520 net55
*521 net56
*522 net57
*523 net58
*524 net59
*525 net6
*526 net60
*527 net61
*528 net62
*529 net63
*530 net64
*531 net65
*532 net66
*533 net67
*534 net68
*535 net69
*536 net7
*537 net70
*538 net71
*539 net72
*540 net73
*541 net74
*542 net75
*543 net76
*544 net77
*545 net78
*546 net79
*547 net8
*548 net80
*549 net81
*550 net82
*551 net83
*552 net84
*553 net85
*554 net86
*555 net87
*556 net88
*557 net89
*558 net9
*559 net90
*560 net91
*561 net92
*562 net93
*563 net94
*564 net95
*565 net96
*566 net97
*567 net98
*568 net99
*569 timer\.dig_cnt\[0\]
*570 timer\.dig_cnt\[1\]
*571 timer\.min_ones\[0\]
*572 timer\.min_ones\[1\]
*573 timer\.min_ones\[2\]
*574 timer\.min_ones\[3\]
*575 timer\.min_tens\[0\]
*576 timer\.min_tens\[1\]
*577 timer\.min_tens\[2\]
*578 timer\.min_tens\[3\]
*579 timer\.scan
*580 timer\.scan_div\[0\]
*581 timer\.scan_div\[10\]
*582 timer\.scan_div\[11\]
*583 timer\.scan_div\[12\]
*584 timer\.scan_div\[13\]
*585 timer\.scan_div\[14\]
*586 timer\.scan_div\[15\]
*587 timer\.scan_div\[16\]
*588 timer\.scan_div\[17\]
*589 timer\.scan_div\[18\]
*590 timer\.scan_div\[19\]
*591 timer\.scan_div\[1\]
*592 timer\.scan_div\[20\]
*593 timer\.scan_div\[21\]
*594 timer\.scan_div\[22\]
*595 timer\.scan_div\[23\]
*596 timer\.scan_div\[24\]
*597 timer\.scan_div\[25\]
*598 timer\.scan_div\[26\]
*599 timer\.scan_div\[27\]
*600 timer\.scan_div\[28\]
*601 timer\.scan_div\[29\]
*602 timer\.scan_div\[2\]
*603 timer\.scan_div\[30\]
*604 timer\.scan_div\[31\]
*605 timer\.scan_div\[3\]
*606 timer\.scan_div\[4\]
*607 timer\.scan_div\[5\]
*608 timer\.scan_div\[6\]
*609 timer\.scan_div\[7\]
*610 timer\.scan_div\[8\]
*611 timer\.scan_div\[9\]
*612 timer\.sec
*613 timer\.sec_div\[0\]
*614 timer\.sec_div\[10\]
*615 timer\.sec_div\[11\]
*616 timer\.sec_div\[12\]
*617 timer\.sec_div\[13\]
*618 timer\.sec_div\[14\]
*619 timer\.sec_div\[15\]
*620 timer\.sec_div\[16\]
*621 timer\.sec_div\[17\]
*622 timer\.sec_div\[18\]
*623 timer\.sec_div\[19\]
*624 timer\.sec_div\[1\]
*625 timer\.sec_div\[20\]
*626 timer\.sec_div\[21\]
*627 timer\.sec_div\[22\]
*628 timer\.sec_div\[23\]
*629 timer\.sec_div\[24\]
*630 timer\.sec_div\[25\]
*631 timer\.sec_div\[26\]
*632 timer\.sec_div\[27\]
*633 timer\.sec_div\[28\]
*634 timer\.sec_div\[29\]
*635 timer\.sec_div\[2\]
*636 timer\.sec_div\[30\]
*637 timer\.sec_div\[31\]
*638 timer\.sec_div\[3\]
*639 timer\.sec_div\[4\]
*640 timer\.sec_div\[5\]
*641 timer\.sec_div\[6\]
*642 timer\.sec_div\[7\]
*643 timer\.sec_div\[8\]
*644 timer\.sec_div\[9\]
*645 timer\.sec_ones\[0\]
*646 timer\.sec_ones\[1\]
*647 timer\.sec_ones\[2\]
*648 timer\.sec_ones\[3\]
*649 timer\.sec_tens\[0\]
*650 timer\.sec_tens\[1\]
*651 timer\.sec_tens\[2\]
*652 timer\.sec_tens\[3\]
*653 ANTENNA_1
*654 ANTENNA_2
*655 ANTENNA_3
*656 ANTENNA__569__C1
*657 ANTENNA__571__A2
*658 ANTENNA__572__A2
*659 ANTENNA__575__C1
*660 ANTENNA__577__A2
*661 ANTENNA__579__A2
*662 ANTENNA__579__B1
*663 ANTENNA__580__A2
*664 ANTENNA__580__B1
*665 ANTENNA__608__A
*666 ANTENNA__609__A
*667 ANTENNA__610__A
*668 ANTENNA__611__A
*669 ANTENNA__613__A
*670 ANTENNA__620__A
*671 ANTENNA__621__A
*672 ANTENNA__635__A
*673 ANTENNA__636__A
*674 ANTENNA__637__A
*675 ANTENNA__638__A
*676 ANTENNA__656__A
*677 ANTENNA__657__A
*678 ANTENNA__658__A
*679 ANTENNA__660__A
*680 ANTENNA__670__A
*681 ANTENNA__671__A
*682 ANTENNA__672__A
*683 ANTENNA__673__A
*684 ANTENNA__674__A
*685 ANTENNA_clkbuf_3_0__f_wb_clk_i_A
*686 ANTENNA_clkbuf_3_1__f_wb_clk_i_A
*687 ANTENNA_clkbuf_3_2__f_wb_clk_i_A
*688 ANTENNA_clkbuf_3_3__f_wb_clk_i_A
*689 ANTENNA_clkbuf_3_4__f_wb_clk_i_A
*690 ANTENNA_clkbuf_3_5__f_wb_clk_i_A
*691 ANTENNA_clkbuf_3_6__f_wb_clk_i_A
*692 ANTENNA_clkbuf_3_7__f_wb_clk_i_A
*693 ANTENNA_fanout13_A
*694 ANTENNA_fanout14_A
*695 ANTENNA_fanout15_A
*696 ANTENNA_fanout16_A
*697 ANTENNA_fanout17_A
*698 ANTENNA_fanout18_A
*699 ANTENNA_output10_A
*700 ANTENNA_output11_A
*701 ANTENNA_output12_A
*702 ANTENNA_output2_A
*703 ANTENNA_output3_A
*704 ANTENNA_output4_A
*705 ANTENNA_output5_A
*706 ANTENNA_output6_A
*707 ANTENNA_output8_A
*708 ANTENNA_output9_A
*709 FILLER_0_0_109
*710 FILLER_0_0_113
*711 FILLER_0_0_125
*712 FILLER_0_0_137
*713 FILLER_0_0_141
*714 FILLER_0_0_15
*715 FILLER_0_0_153
*716 FILLER_0_0_165
*717 FILLER_0_0_169
*718 FILLER_0_0_181
*719 FILLER_0_0_193
*720 FILLER_0_0_197
*721 FILLER_0_0_209
*722 FILLER_0_0_221
*723 FILLER_0_0_225
*724 FILLER_0_0_237
*725 FILLER_0_0_249
*726 FILLER_0_0_253
*727 FILLER_0_0_265
*728 FILLER_0_0_27
*729 FILLER_0_0_277
*730 FILLER_0_0_281
*731 FILLER_0_0_29
*732 FILLER_0_0_293
*733 FILLER_0_0_3
*734 FILLER_0_0_305
*735 FILLER_0_0_309
*736 FILLER_0_0_321
*737 FILLER_0_0_333
*738 FILLER_0_0_337
*739 FILLER_0_0_349
*740 FILLER_0_0_361
*741 FILLER_0_0_365
*742 FILLER_0_0_377
*743 FILLER_0_0_389
*744 FILLER_0_0_393
*745 FILLER_0_0_405
*746 FILLER_0_0_41
*747 FILLER_0_0_53
*748 FILLER_0_0_57
*749 FILLER_0_0_69
*750 FILLER_0_0_81
*751 FILLER_0_0_85
*752 FILLER_0_0_97
*753 FILLER_0_1000_109
*754 FILLER_0_1000_121
*755 FILLER_0_1000_133
*756 FILLER_0_1000_139
*757 FILLER_0_1000_141
*758 FILLER_0_1000_15
*759 FILLER_0_1000_153
*760 FILLER_0_1000_165
*761 FILLER_0_1000_177
*762 FILLER_0_1000_189
*763 FILLER_0_1000_195
*764 FILLER_0_1000_197
*765 FILLER_0_1000_209
*766 FILLER_0_1000_221
*767 FILLER_0_1000_233
*768 FILLER_0_1000_245
*769 FILLER_0_1000_251
*770 FILLER_0_1000_253
*771 FILLER_0_1000_265
*772 FILLER_0_1000_27
*773 FILLER_0_1000_277
*774 FILLER_0_1000_289
*775 FILLER_0_1000_29
*776 FILLER_0_1000_3
*777 FILLER_0_1000_301
*778 FILLER_0_1000_307
*779 FILLER_0_1000_309
*780 FILLER_0_1000_321
*781 FILLER_0_1000_333
*782 FILLER_0_1000_345
*783 FILLER_0_1000_357
*784 FILLER_0_1000_363
*785 FILLER_0_1000_365
*786 FILLER_0_1000_377
*787 FILLER_0_1000_389
*788 FILLER_0_1000_401
*789 FILLER_0_1000_41
*790 FILLER_0_1000_53
*791 FILLER_0_1000_65
*792 FILLER_0_1000_77
*793 FILLER_0_1000_83
*794 FILLER_0_1000_85
*795 FILLER_0_1000_97
*796 FILLER_0_1001_105
*797 FILLER_0_1001_111
*798 FILLER_0_1001_113
*799 FILLER_0_1001_125
*800 FILLER_0_1001_137
*801 FILLER_0_1001_149
*802 FILLER_0_1001_15
*803 FILLER_0_1001_161
*804 FILLER_0_1001_167
*805 FILLER_0_1001_169
*806 FILLER_0_1001_181
*807 FILLER_0_1001_193
*808 FILLER_0_1001_205
*809 FILLER_0_1001_217
*810 FILLER_0_1001_223
*811 FILLER_0_1001_225
*812 FILLER_0_1001_237
*813 FILLER_0_1001_249
*814 FILLER_0_1001_261
*815 FILLER_0_1001_27
*816 FILLER_0_1001_273
*817 FILLER_0_1001_279
*818 FILLER_0_1001_281
*819 FILLER_0_1001_293
*820 FILLER_0_1001_3
*821 FILLER_0_1001_305
*822 FILLER_0_1001_317
*823 FILLER_0_1001_329
*824 FILLER_0_1001_335
*825 FILLER_0_1001_337
*826 FILLER_0_1001_349
*827 FILLER_0_1001_361
*828 FILLER_0_1001_373
*829 FILLER_0_1001_385
*830 FILLER_0_1001_39
*831 FILLER_0_1001_391
*832 FILLER_0_1001_393
*833 FILLER_0_1001_405
*834 FILLER_0_1001_51
*835 FILLER_0_1001_55
*836 FILLER_0_1001_57
*837 FILLER_0_1001_69
*838 FILLER_0_1001_81
*839 FILLER_0_1001_93
*840 FILLER_0_1002_109
*841 FILLER_0_1002_121
*842 FILLER_0_1002_133
*843 FILLER_0_1002_139
*844 FILLER_0_1002_141
*845 FILLER_0_1002_15
*846 FILLER_0_1002_153
*847 FILLER_0_1002_165
*848 FILLER_0_1002_177
*849 FILLER_0_1002_189
*850 FILLER_0_1002_195
*851 FILLER_0_1002_197
*852 FILLER_0_1002_209
*853 FILLER_0_1002_221
*854 FILLER_0_1002_233
*855 FILLER_0_1002_245
*856 FILLER_0_1002_251
*857 FILLER_0_1002_253
*858 FILLER_0_1002_265
*859 FILLER_0_1002_27
*860 FILLER_0_1002_277
*861 FILLER_0_1002_289
*862 FILLER_0_1002_29
*863 FILLER_0_1002_3
*864 FILLER_0_1002_301
*865 FILLER_0_1002_307
*866 FILLER_0_1002_309
*867 FILLER_0_1002_321
*868 FILLER_0_1002_333
*869 FILLER_0_1002_345
*870 FILLER_0_1002_357
*871 FILLER_0_1002_363
*872 FILLER_0_1002_365
*873 FILLER_0_1002_377
*874 FILLER_0_1002_389
*875 FILLER_0_1002_401
*876 FILLER_0_1002_41
*877 FILLER_0_1002_53
*878 FILLER_0_1002_65
*879 FILLER_0_1002_77
*880 FILLER_0_1002_83
*881 FILLER_0_1002_85
*882 FILLER_0_1002_97
*883 FILLER_0_1003_105
*884 FILLER_0_1003_111
*885 FILLER_0_1003_113
*886 FILLER_0_1003_125
*887 FILLER_0_1003_137
*888 FILLER_0_1003_149
*889 FILLER_0_1003_15
*890 FILLER_0_1003_161
*891 FILLER_0_1003_167
*892 FILLER_0_1003_169
*893 FILLER_0_1003_181
*894 FILLER_0_1003_193
*895 FILLER_0_1003_205
*896 FILLER_0_1003_217
*897 FILLER_0_1003_223
*898 FILLER_0_1003_225
*899 FILLER_0_1003_237
*900 FILLER_0_1003_249
*901 FILLER_0_1003_261
*902 FILLER_0_1003_27
*903 FILLER_0_1003_273
*904 FILLER_0_1003_279
*905 FILLER_0_1003_281
*906 FILLER_0_1003_293
*907 FILLER_0_1003_3
*908 FILLER_0_1003_305
*909 FILLER_0_1003_317
*910 FILLER_0_1003_329
*911 FILLER_0_1003_335
*912 FILLER_0_1003_337
*913 FILLER_0_1003_349
*914 FILLER_0_1003_361
*915 FILLER_0_1003_373
*916 FILLER_0_1003_385
*917 FILLER_0_1003_39
*918 FILLER_0_1003_391
*919 FILLER_0_1003_393
*920 FILLER_0_1003_405
*921 FILLER_0_1003_51
*922 FILLER_0_1003_55
*923 FILLER_0_1003_57
*924 FILLER_0_1003_69
*925 FILLER_0_1003_81
*926 FILLER_0_1003_93
*927 FILLER_0_1004_109
*928 FILLER_0_1004_11
*929 FILLER_0_1004_121
*930 FILLER_0_1004_133
*931 FILLER_0_1004_139
*932 FILLER_0_1004_141
*933 FILLER_0_1004_153
*934 FILLER_0_1004_165
*935 FILLER_0_1004_177
*936 FILLER_0_1004_189
*937 FILLER_0_1004_195
*938 FILLER_0_1004_197
*939 FILLER_0_1004_209
*940 FILLER_0_1004_221
*941 FILLER_0_1004_23
*942 FILLER_0_1004_233
*943 FILLER_0_1004_245
*944 FILLER_0_1004_251
*945 FILLER_0_1004_253
*946 FILLER_0_1004_265
*947 FILLER_0_1004_27
*948 FILLER_0_1004_277
*949 FILLER_0_1004_289
*950 FILLER_0_1004_29
*951 FILLER_0_1004_301
*952 FILLER_0_1004_307
*953 FILLER_0_1004_309
*954 FILLER_0_1004_321
*955 FILLER_0_1004_333
*956 FILLER_0_1004_345
*957 FILLER_0_1004_357
*958 FILLER_0_1004_363
*959 FILLER_0_1004_365
*960 FILLER_0_1004_377
*961 FILLER_0_1004_389
*962 FILLER_0_1004_401
*963 FILLER_0_1004_41
*964 FILLER_0_1004_53
*965 FILLER_0_1004_65
*966 FILLER_0_1004_7
*967 FILLER_0_1004_77
*968 FILLER_0_1004_83
*969 FILLER_0_1004_85
*970 FILLER_0_1004_97
*971 FILLER_0_1005_105
*972 FILLER_0_1005_111
*973 FILLER_0_1005_113
*974 FILLER_0_1005_125
*975 FILLER_0_1005_137
*976 FILLER_0_1005_149
*977 FILLER_0_1005_15
*978 FILLER_0_1005_161
*979 FILLER_0_1005_167
*980 FILLER_0_1005_169
*981 FILLER_0_1005_181
*982 FILLER_0_1005_193
*983 FILLER_0_1005_205
*984 FILLER_0_1005_217
*985 FILLER_0_1005_223
*986 FILLER_0_1005_225
*987 FILLER_0_1005_237
*988 FILLER_0_1005_249
*989 FILLER_0_1005_261
*990 FILLER_0_1005_27
*991 FILLER_0_1005_273
*992 FILLER_0_1005_279
*993 FILLER_0_1005_281
*994 FILLER_0_1005_293
*995 FILLER_0_1005_3
*996 FILLER_0_1005_305
*997 FILLER_0_1005_317
*998 FILLER_0_1005_329
*999 FILLER_0_1005_335
*1000 FILLER_0_1005_337
*1001 FILLER_0_1005_349
*1002 FILLER_0_1005_361
*1003 FILLER_0_1005_373
*1004 FILLER_0_1005_385
*1005 FILLER_0_1005_39
*1006 FILLER_0_1005_391
*1007 FILLER_0_1005_393
*1008 FILLER_0_1005_405
*1009 FILLER_0_1005_51
*1010 FILLER_0_1005_55
*1011 FILLER_0_1005_57
*1012 FILLER_0_1005_69
*1013 FILLER_0_1005_81
*1014 FILLER_0_1005_93
*1015 FILLER_0_1006_109
*1016 FILLER_0_1006_121
*1017 FILLER_0_1006_133
*1018 FILLER_0_1006_139
*1019 FILLER_0_1006_141
*1020 FILLER_0_1006_15
*1021 FILLER_0_1006_153
*1022 FILLER_0_1006_165
*1023 FILLER_0_1006_177
*1024 FILLER_0_1006_189
*1025 FILLER_0_1006_195
*1026 FILLER_0_1006_197
*1027 FILLER_0_1006_209
*1028 FILLER_0_1006_221
*1029 FILLER_0_1006_233
*1030 FILLER_0_1006_245
*1031 FILLER_0_1006_251
*1032 FILLER_0_1006_253
*1033 FILLER_0_1006_265
*1034 FILLER_0_1006_27
*1035 FILLER_0_1006_277
*1036 FILLER_0_1006_289
*1037 FILLER_0_1006_29
*1038 FILLER_0_1006_3
*1039 FILLER_0_1006_301
*1040 FILLER_0_1006_307
*1041 FILLER_0_1006_309
*1042 FILLER_0_1006_321
*1043 FILLER_0_1006_333
*1044 FILLER_0_1006_345
*1045 FILLER_0_1006_357
*1046 FILLER_0_1006_363
*1047 FILLER_0_1006_365
*1048 FILLER_0_1006_377
*1049 FILLER_0_1006_389
*1050 FILLER_0_1006_401
*1051 FILLER_0_1006_41
*1052 FILLER_0_1006_53
*1053 FILLER_0_1006_65
*1054 FILLER_0_1006_77
*1055 FILLER_0_1006_83
*1056 FILLER_0_1006_85
*1057 FILLER_0_1006_97
*1058 FILLER_0_1007_105
*1059 FILLER_0_1007_111
*1060 FILLER_0_1007_113
*1061 FILLER_0_1007_125
*1062 FILLER_0_1007_137
*1063 FILLER_0_1007_149
*1064 FILLER_0_1007_15
*1065 FILLER_0_1007_161
*1066 FILLER_0_1007_167
*1067 FILLER_0_1007_169
*1068 FILLER_0_1007_181
*1069 FILLER_0_1007_193
*1070 FILLER_0_1007_205
*1071 FILLER_0_1007_217
*1072 FILLER_0_1007_223
*1073 FILLER_0_1007_225
*1074 FILLER_0_1007_237
*1075 FILLER_0_1007_249
*1076 FILLER_0_1007_261
*1077 FILLER_0_1007_27
*1078 FILLER_0_1007_273
*1079 FILLER_0_1007_279
*1080 FILLER_0_1007_281
*1081 FILLER_0_1007_293
*1082 FILLER_0_1007_3
*1083 FILLER_0_1007_305
*1084 FILLER_0_1007_317
*1085 FILLER_0_1007_329
*1086 FILLER_0_1007_335
*1087 FILLER_0_1007_337
*1088 FILLER_0_1007_349
*1089 FILLER_0_1007_361
*1090 FILLER_0_1007_373
*1091 FILLER_0_1007_385
*1092 FILLER_0_1007_39
*1093 FILLER_0_1007_391
*1094 FILLER_0_1007_393
*1095 FILLER_0_1007_405
*1096 FILLER_0_1007_51
*1097 FILLER_0_1007_55
*1098 FILLER_0_1007_57
*1099 FILLER_0_1007_69
*1100 FILLER_0_1007_81
*1101 FILLER_0_1007_93
*1102 FILLER_0_1008_109
*1103 FILLER_0_1008_121
*1104 FILLER_0_1008_133
*1105 FILLER_0_1008_139
*1106 FILLER_0_1008_141
*1107 FILLER_0_1008_15
*1108 FILLER_0_1008_153
*1109 FILLER_0_1008_165
*1110 FILLER_0_1008_177
*1111 FILLER_0_1008_189
*1112 FILLER_0_1008_195
*1113 FILLER_0_1008_197
*1114 FILLER_0_1008_209
*1115 FILLER_0_1008_221
*1116 FILLER_0_1008_233
*1117 FILLER_0_1008_245
*1118 FILLER_0_1008_251
*1119 FILLER_0_1008_253
*1120 FILLER_0_1008_265
*1121 FILLER_0_1008_27
*1122 FILLER_0_1008_277
*1123 FILLER_0_1008_289
*1124 FILLER_0_1008_29
*1125 FILLER_0_1008_3
*1126 FILLER_0_1008_301
*1127 FILLER_0_1008_307
*1128 FILLER_0_1008_309
*1129 FILLER_0_1008_321
*1130 FILLER_0_1008_333
*1131 FILLER_0_1008_345
*1132 FILLER_0_1008_357
*1133 FILLER_0_1008_363
*1134 FILLER_0_1008_365
*1135 FILLER_0_1008_377
*1136 FILLER_0_1008_389
*1137 FILLER_0_1008_401
*1138 FILLER_0_1008_41
*1139 FILLER_0_1008_53
*1140 FILLER_0_1008_65
*1141 FILLER_0_1008_77
*1142 FILLER_0_1008_83
*1143 FILLER_0_1008_85
*1144 FILLER_0_1008_97
*1145 FILLER_0_1009_105
*1146 FILLER_0_1009_111
*1147 FILLER_0_1009_113
*1148 FILLER_0_1009_125
*1149 FILLER_0_1009_137
*1150 FILLER_0_1009_149
*1151 FILLER_0_1009_15
*1152 FILLER_0_1009_161
*1153 FILLER_0_1009_167
*1154 FILLER_0_1009_169
*1155 FILLER_0_1009_181
*1156 FILLER_0_1009_193
*1157 FILLER_0_1009_205
*1158 FILLER_0_1009_217
*1159 FILLER_0_1009_223
*1160 FILLER_0_1009_225
*1161 FILLER_0_1009_237
*1162 FILLER_0_1009_249
*1163 FILLER_0_1009_261
*1164 FILLER_0_1009_27
*1165 FILLER_0_1009_273
*1166 FILLER_0_1009_279
*1167 FILLER_0_1009_281
*1168 FILLER_0_1009_293
*1169 FILLER_0_1009_3
*1170 FILLER_0_1009_305
*1171 FILLER_0_1009_317
*1172 FILLER_0_1009_329
*1173 FILLER_0_1009_335
*1174 FILLER_0_1009_337
*1175 FILLER_0_1009_349
*1176 FILLER_0_1009_361
*1177 FILLER_0_1009_373
*1178 FILLER_0_1009_385
*1179 FILLER_0_1009_39
*1180 FILLER_0_1009_391
*1181 FILLER_0_1009_393
*1182 FILLER_0_1009_405
*1183 FILLER_0_1009_51
*1184 FILLER_0_1009_55
*1185 FILLER_0_1009_57
*1186 FILLER_0_1009_69
*1187 FILLER_0_1009_81
*1188 FILLER_0_1009_93
*1189 FILLER_0_100_109
*1190 FILLER_0_100_121
*1191 FILLER_0_100_133
*1192 FILLER_0_100_139
*1193 FILLER_0_100_141
*1194 FILLER_0_100_15
*1195 FILLER_0_100_153
*1196 FILLER_0_100_165
*1197 FILLER_0_100_177
*1198 FILLER_0_100_189
*1199 FILLER_0_100_195
*1200 FILLER_0_100_197
*1201 FILLER_0_100_209
*1202 FILLER_0_100_221
*1203 FILLER_0_100_233
*1204 FILLER_0_100_245
*1205 FILLER_0_100_251
*1206 FILLER_0_100_253
*1207 FILLER_0_100_265
*1208 FILLER_0_100_27
*1209 FILLER_0_100_277
*1210 FILLER_0_100_289
*1211 FILLER_0_100_29
*1212 FILLER_0_100_3
*1213 FILLER_0_100_301
*1214 FILLER_0_100_307
*1215 FILLER_0_100_309
*1216 FILLER_0_100_321
*1217 FILLER_0_100_333
*1218 FILLER_0_100_345
*1219 FILLER_0_100_357
*1220 FILLER_0_100_363
*1221 FILLER_0_100_365
*1222 FILLER_0_100_377
*1223 FILLER_0_100_389
*1224 FILLER_0_100_401
*1225 FILLER_0_100_41
*1226 FILLER_0_100_53
*1227 FILLER_0_100_65
*1228 FILLER_0_100_77
*1229 FILLER_0_100_83
*1230 FILLER_0_100_85
*1231 FILLER_0_100_97
*1232 FILLER_0_1010_109
*1233 FILLER_0_1010_121
*1234 FILLER_0_1010_133
*1235 FILLER_0_1010_139
*1236 FILLER_0_1010_141
*1237 FILLER_0_1010_15
*1238 FILLER_0_1010_153
*1239 FILLER_0_1010_165
*1240 FILLER_0_1010_177
*1241 FILLER_0_1010_189
*1242 FILLER_0_1010_195
*1243 FILLER_0_1010_197
*1244 FILLER_0_1010_209
*1245 FILLER_0_1010_221
*1246 FILLER_0_1010_233
*1247 FILLER_0_1010_245
*1248 FILLER_0_1010_251
*1249 FILLER_0_1010_253
*1250 FILLER_0_1010_265
*1251 FILLER_0_1010_27
*1252 FILLER_0_1010_277
*1253 FILLER_0_1010_289
*1254 FILLER_0_1010_29
*1255 FILLER_0_1010_3
*1256 FILLER_0_1010_301
*1257 FILLER_0_1010_307
*1258 FILLER_0_1010_309
*1259 FILLER_0_1010_321
*1260 FILLER_0_1010_333
*1261 FILLER_0_1010_345
*1262 FILLER_0_1010_357
*1263 FILLER_0_1010_363
*1264 FILLER_0_1010_365
*1265 FILLER_0_1010_377
*1266 FILLER_0_1010_389
*1267 FILLER_0_1010_401
*1268 FILLER_0_1010_41
*1269 FILLER_0_1010_53
*1270 FILLER_0_1010_65
*1271 FILLER_0_1010_77
*1272 FILLER_0_1010_83
*1273 FILLER_0_1010_85
*1274 FILLER_0_1010_97
*1275 FILLER_0_1011_105
*1276 FILLER_0_1011_111
*1277 FILLER_0_1011_113
*1278 FILLER_0_1011_125
*1279 FILLER_0_1011_137
*1280 FILLER_0_1011_149
*1281 FILLER_0_1011_15
*1282 FILLER_0_1011_161
*1283 FILLER_0_1011_167
*1284 FILLER_0_1011_169
*1285 FILLER_0_1011_181
*1286 FILLER_0_1011_193
*1287 FILLER_0_1011_205
*1288 FILLER_0_1011_217
*1289 FILLER_0_1011_223
*1290 FILLER_0_1011_225
*1291 FILLER_0_1011_237
*1292 FILLER_0_1011_249
*1293 FILLER_0_1011_261
*1294 FILLER_0_1011_27
*1295 FILLER_0_1011_273
*1296 FILLER_0_1011_279
*1297 FILLER_0_1011_281
*1298 FILLER_0_1011_293
*1299 FILLER_0_1011_3
*1300 FILLER_0_1011_305
*1301 FILLER_0_1011_317
*1302 FILLER_0_1011_329
*1303 FILLER_0_1011_335
*1304 FILLER_0_1011_337
*1305 FILLER_0_1011_349
*1306 FILLER_0_1011_361
*1307 FILLER_0_1011_373
*1308 FILLER_0_1011_385
*1309 FILLER_0_1011_39
*1310 FILLER_0_1011_391
*1311 FILLER_0_1011_393
*1312 FILLER_0_1011_405
*1313 FILLER_0_1011_51
*1314 FILLER_0_1011_55
*1315 FILLER_0_1011_57
*1316 FILLER_0_1011_69
*1317 FILLER_0_1011_81
*1318 FILLER_0_1011_93
*1319 FILLER_0_1012_109
*1320 FILLER_0_1012_121
*1321 FILLER_0_1012_133
*1322 FILLER_0_1012_139
*1323 FILLER_0_1012_141
*1324 FILLER_0_1012_15
*1325 FILLER_0_1012_153
*1326 FILLER_0_1012_165
*1327 FILLER_0_1012_177
*1328 FILLER_0_1012_189
*1329 FILLER_0_1012_195
*1330 FILLER_0_1012_197
*1331 FILLER_0_1012_209
*1332 FILLER_0_1012_221
*1333 FILLER_0_1012_233
*1334 FILLER_0_1012_245
*1335 FILLER_0_1012_251
*1336 FILLER_0_1012_253
*1337 FILLER_0_1012_265
*1338 FILLER_0_1012_27
*1339 FILLER_0_1012_277
*1340 FILLER_0_1012_289
*1341 FILLER_0_1012_29
*1342 FILLER_0_1012_3
*1343 FILLER_0_1012_301
*1344 FILLER_0_1012_307
*1345 FILLER_0_1012_309
*1346 FILLER_0_1012_321
*1347 FILLER_0_1012_333
*1348 FILLER_0_1012_345
*1349 FILLER_0_1012_357
*1350 FILLER_0_1012_363
*1351 FILLER_0_1012_365
*1352 FILLER_0_1012_377
*1353 FILLER_0_1012_389
*1354 FILLER_0_1012_401
*1355 FILLER_0_1012_41
*1356 FILLER_0_1012_53
*1357 FILLER_0_1012_65
*1358 FILLER_0_1012_77
*1359 FILLER_0_1012_83
*1360 FILLER_0_1012_85
*1361 FILLER_0_1012_97
*1362 FILLER_0_1013_105
*1363 FILLER_0_1013_111
*1364 FILLER_0_1013_113
*1365 FILLER_0_1013_125
*1366 FILLER_0_1013_137
*1367 FILLER_0_1013_149
*1368 FILLER_0_1013_15
*1369 FILLER_0_1013_161
*1370 FILLER_0_1013_167
*1371 FILLER_0_1013_169
*1372 FILLER_0_1013_181
*1373 FILLER_0_1013_193
*1374 FILLER_0_1013_205
*1375 FILLER_0_1013_217
*1376 FILLER_0_1013_223
*1377 FILLER_0_1013_225
*1378 FILLER_0_1013_237
*1379 FILLER_0_1013_249
*1380 FILLER_0_1013_261
*1381 FILLER_0_1013_27
*1382 FILLER_0_1013_273
*1383 FILLER_0_1013_279
*1384 FILLER_0_1013_281
*1385 FILLER_0_1013_293
*1386 FILLER_0_1013_3
*1387 FILLER_0_1013_305
*1388 FILLER_0_1013_317
*1389 FILLER_0_1013_329
*1390 FILLER_0_1013_335
*1391 FILLER_0_1013_337
*1392 FILLER_0_1013_349
*1393 FILLER_0_1013_361
*1394 FILLER_0_1013_373
*1395 FILLER_0_1013_385
*1396 FILLER_0_1013_39
*1397 FILLER_0_1013_391
*1398 FILLER_0_1013_393
*1399 FILLER_0_1013_405
*1400 FILLER_0_1013_51
*1401 FILLER_0_1013_55
*1402 FILLER_0_1013_57
*1403 FILLER_0_1013_69
*1404 FILLER_0_1013_81
*1405 FILLER_0_1013_93
*1406 FILLER_0_1014_109
*1407 FILLER_0_1014_121
*1408 FILLER_0_1014_133
*1409 FILLER_0_1014_139
*1410 FILLER_0_1014_141
*1411 FILLER_0_1014_15
*1412 FILLER_0_1014_153
*1413 FILLER_0_1014_165
*1414 FILLER_0_1014_177
*1415 FILLER_0_1014_189
*1416 FILLER_0_1014_195
*1417 FILLER_0_1014_197
*1418 FILLER_0_1014_209
*1419 FILLER_0_1014_221
*1420 FILLER_0_1014_233
*1421 FILLER_0_1014_245
*1422 FILLER_0_1014_251
*1423 FILLER_0_1014_253
*1424 FILLER_0_1014_265
*1425 FILLER_0_1014_27
*1426 FILLER_0_1014_277
*1427 FILLER_0_1014_289
*1428 FILLER_0_1014_29
*1429 FILLER_0_1014_3
*1430 FILLER_0_1014_301
*1431 FILLER_0_1014_307
*1432 FILLER_0_1014_309
*1433 FILLER_0_1014_321
*1434 FILLER_0_1014_333
*1435 FILLER_0_1014_345
*1436 FILLER_0_1014_357
*1437 FILLER_0_1014_363
*1438 FILLER_0_1014_365
*1439 FILLER_0_1014_377
*1440 FILLER_0_1014_389
*1441 FILLER_0_1014_401
*1442 FILLER_0_1014_41
*1443 FILLER_0_1014_53
*1444 FILLER_0_1014_65
*1445 FILLER_0_1014_77
*1446 FILLER_0_1014_83
*1447 FILLER_0_1014_85
*1448 FILLER_0_1014_97
*1449 FILLER_0_1015_105
*1450 FILLER_0_1015_111
*1451 FILLER_0_1015_113
*1452 FILLER_0_1015_125
*1453 FILLER_0_1015_137
*1454 FILLER_0_1015_149
*1455 FILLER_0_1015_15
*1456 FILLER_0_1015_161
*1457 FILLER_0_1015_167
*1458 FILLER_0_1015_169
*1459 FILLER_0_1015_181
*1460 FILLER_0_1015_193
*1461 FILLER_0_1015_205
*1462 FILLER_0_1015_217
*1463 FILLER_0_1015_223
*1464 FILLER_0_1015_225
*1465 FILLER_0_1015_237
*1466 FILLER_0_1015_249
*1467 FILLER_0_1015_261
*1468 FILLER_0_1015_27
*1469 FILLER_0_1015_273
*1470 FILLER_0_1015_279
*1471 FILLER_0_1015_281
*1472 FILLER_0_1015_293
*1473 FILLER_0_1015_3
*1474 FILLER_0_1015_305
*1475 FILLER_0_1015_317
*1476 FILLER_0_1015_329
*1477 FILLER_0_1015_335
*1478 FILLER_0_1015_337
*1479 FILLER_0_1015_349
*1480 FILLER_0_1015_361
*1481 FILLER_0_1015_373
*1482 FILLER_0_1015_385
*1483 FILLER_0_1015_39
*1484 FILLER_0_1015_391
*1485 FILLER_0_1015_393
*1486 FILLER_0_1015_405
*1487 FILLER_0_1015_51
*1488 FILLER_0_1015_55
*1489 FILLER_0_1015_57
*1490 FILLER_0_1015_69
*1491 FILLER_0_1015_81
*1492 FILLER_0_1015_93
*1493 FILLER_0_1016_109
*1494 FILLER_0_1016_121
*1495 FILLER_0_1016_133
*1496 FILLER_0_1016_139
*1497 FILLER_0_1016_141
*1498 FILLER_0_1016_15
*1499 FILLER_0_1016_153
*1500 FILLER_0_1016_165
*1501 FILLER_0_1016_177
*1502 FILLER_0_1016_189
*1503 FILLER_0_1016_195
*1504 FILLER_0_1016_197
*1505 FILLER_0_1016_209
*1506 FILLER_0_1016_221
*1507 FILLER_0_1016_233
*1508 FILLER_0_1016_245
*1509 FILLER_0_1016_251
*1510 FILLER_0_1016_253
*1511 FILLER_0_1016_265
*1512 FILLER_0_1016_27
*1513 FILLER_0_1016_277
*1514 FILLER_0_1016_289
*1515 FILLER_0_1016_29
*1516 FILLER_0_1016_3
*1517 FILLER_0_1016_301
*1518 FILLER_0_1016_307
*1519 FILLER_0_1016_309
*1520 FILLER_0_1016_321
*1521 FILLER_0_1016_333
*1522 FILLER_0_1016_345
*1523 FILLER_0_1016_357
*1524 FILLER_0_1016_363
*1525 FILLER_0_1016_365
*1526 FILLER_0_1016_377
*1527 FILLER_0_1016_389
*1528 FILLER_0_1016_401
*1529 FILLER_0_1016_41
*1530 FILLER_0_1016_53
*1531 FILLER_0_1016_65
*1532 FILLER_0_1016_77
*1533 FILLER_0_1016_83
*1534 FILLER_0_1016_85
*1535 FILLER_0_1016_97
*1536 FILLER_0_1017_105
*1537 FILLER_0_1017_111
*1538 FILLER_0_1017_113
*1539 FILLER_0_1017_125
*1540 FILLER_0_1017_137
*1541 FILLER_0_1017_149
*1542 FILLER_0_1017_15
*1543 FILLER_0_1017_161
*1544 FILLER_0_1017_167
*1545 FILLER_0_1017_169
*1546 FILLER_0_1017_181
*1547 FILLER_0_1017_193
*1548 FILLER_0_1017_205
*1549 FILLER_0_1017_217
*1550 FILLER_0_1017_223
*1551 FILLER_0_1017_225
*1552 FILLER_0_1017_237
*1553 FILLER_0_1017_249
*1554 FILLER_0_1017_261
*1555 FILLER_0_1017_27